%%%%%%%%%%%%%%%%%%%%%%%%%%%%%%%%%%%%%%%%%%%%%%%%%%%%%%%%%%%%%%%%%%%%%%%%%%%%%%%%
%                                                                              %
% SU2 configuration file                                                       %
% Case description: CRM wing RANS                 %
% Author: Rocco Bombardieri                                                    %
% Institution: University of Carlos III Madrid                                 %
% Date: 29/08/2020                                                               %
%                                                                              %
%%%%%%%%%%%%%%%%%%%%%%%%%%%%%%%%%%%%%%%%%%%%%%%%%%%%%%%%%%%%%%%%%%%%%%%%%%%%%%%%

% ------------- DIRECT, ADJOINT, AND LINEARIZED PROBLEM DEFINITION ------------%

SOLVER= RANS

MATH_PROBLEM= DIRECT
KIND_TURB_MODEL= SA
RESTART_SOL= NO
WRT_BINARY_RESTART= NO
READ_BINARY_RESTART= NO

SINGLEZONE_DRIVER = YES
ITER = 4000

% -------------------- COMPRESSIBLE FREE-STREAM DEFINITION --------------------%
%
% Mach number (non-dimensional, based on the free-stream values)
MACH_NUMBER= 0.85
%
% Angle of attack (degrees, only for compressible flows)
AOA= 1.666736
%
% Side-slip angle (degrees, only for compressible flows)
SIDESLIP_ANGLE= 0.0
%
% Init option to choose between Reynolds (default) or thermodynamics quantities
% for initializing the solution (REYNOLDS, TD_CONDITIONS)
INIT_OPTION= REYNOLDS
%
% Free-stream option to choose between density and temperature (default) for
% initializing the solution (TEMPERATURE_FS, DENSITY_FS)
FREESTREAM_OPTION= TEMPERATURE_FS
%
% Free-stream temperature (288.15 K by default)
FREESTREAM_TEMPERATURE= 288.15
%
% Reynolds number (non-dimensional, based on the free-stream values)
REYNOLDS_NUMBER= 40E6
%
% Reynolds length (1 m by default)
REYNOLDS_LENGTH= 2.019936814972079

% ---- IDEAL GAS, POLYTROPIC, VAN DER WAALS AND PENG ROBINSON CONSTANTS -------%
%
% Different gas model (STANDARD_AIR, IDEAL_GAS, VW_GAS, PR_GAS)
FLUID_MODEL= STANDARD_AIR
%
% Ratio of specific heats (1.4 default and the value is hardcoded
%                          for the model STANDARD_AIR)
GAMMA_VALUE= 1.4
%
% Specific gas constant (287.058 J/kg*K default and this value is hardcoded
%                        for the model STANDARD_AIR)
GAS_CONSTANT= 287.058

% --------------------------- VISCOSITY MODEL ---------------------------------%
%
% Viscosity model (SUTHERLAND, CONSTANT_VISCOSITY).
VISCOSITY_MODEL= SUTHERLAND
%
% Sutherland Viscosity Ref (1.716E-5 default value for AIR SI)
MU_REF= 1.716E-5
%
% Sutherland Temperature Ref (273.15 K default value for AIR SI)
MU_T_REF= 273.15
%
% Sutherland constant (110.4 default value for AIR SI)
SUTHERLAND_CONSTANT= 110.4

% --------------------------- THERMAL CONDUCTIVITY MODEL ----------------------%
%
% Conductivity model (CONSTANT_CONDUCTIVITY, CONSTANT_PRANDTL).
CONDUCTIVITY_MODEL= CONSTANT_PRANDTL
%
% Laminar Prandtl number (0.72 (air), only for CONSTANT_PRANDTL)
PRANDTL_LAM= 0.72
%
% Turbulent Prandtl number (0.9 (air), only for CONSTANT_PRANDTL)
PRANDTL_TURB= 0.90


% -------------------------- CL DRIVER DEFINITION -----------------------------%
%
% Activate fixed lift mode (specify a CL instead of AoA, NO/YES)
FIXED_CL_MODE= YES
%
% Target coefficient of lift for fixed lift mode (0.80 by default)
TARGET_CL= 0.5
%
% Estimation of dCL/dAlpha (0.2 per degree by default)
DCL_DALPHA= 0.1
%
% Maximum number of iterations between AoA updates
UPDATE_AOA_ITER_LIMIT= 500
%
% Number of iterations to evaluate dCL_dAlpha by using finite differences (500 by default)
ITER_DCL_DALPHA= 0

% ---------------------- REFERENCE VALUE DEFINITION ---------------------------%
%
% Reference origin for moment computation
REF_ORIGIN_MOMENT_X = 10.7
REF_ORIGIN_MOMENT_Y = 11.9
REF_ORIGIN_MOMENT_Z = 0.491
%
% Reference length for pitching, rolling, and yawing non-dimensional moment
REF_LENGTH= 7
%
% Reference area for force coefficients (0 implies automatic calculation)
REF_AREA= 0
%
% Compressible flow non-dimensionalization (DIMENSIONAL, FREESTREAM_PRESS_EQ_ONE,
%                              FREESTREAM_VEL_EQ_MACH, FREESTREAM_VEL_EQ_ONE)
%REF_DIMENSIONALIZATION= DIMENSIONAL
REF_DIMENSIONALIZATION= FREESTREAM_PRESS_EQ_ONE

% -------------------- BOUNDARY CONDITION DEFINITION --------------------------%
%
% Navier-Stokes wall boundary marker(s) (NONE = no marker)
MARKER_HEATFLUX= ( WING, 0.0 )
%
% Far-field boundary marker(s) (NONE = no marker)
MARKER_FAR= ( FARFIELD )
%
% Symmetry boundary marker(s) (NONE = no marker)
MARKER_SYM= ( SYMMETRY )
%
% Marker(s) of the surface to be plotted or designed
MARKER_PLOTTING= ( WING )
%
% Marker(s) of the surface where the functional (Cd, Cl, etc.) will be evaluated
MARKER_MONITORING= ( WING )

% ------------------------ SURFACES IDENTIFICATION ----------------------------%
MARKER_DESIGNING = ( WING )

MARKER_DEFORM_MESH = ( WING )

MARKER_FLUID_LOAD = ( WING )

% --------------------------- MESH PARAMETERS ---------------------------------%
DEFORM_MESH = YES

% Linear solver or smoother for implicit formulations (FGMRES, RESTARTED_FGMRES, BCGSTAB)
DEFORM_LINEAR_SOLVER= FGMRES
%
% Number of smoothing iterations for mesh deformation
DEFORM_LINEAR_SOLVER_ITER= 500
%
% Minimum residual criteria for the linear solver convergence of grid deformation
DEFORM_LINEAR_SOLVER_ERROR= 1E-16
%
% Type of element stiffness imposed for FEA mesh deformation (INVERSE_VOLUME,
%                                          WALL_DISTANCE, CONSTANT_STIFFNESS)
DEFORM_STIFFNESS_TYPE= INVERSE_VOLUME

DEFORM_LINEAR_SOLVER_PREC= JACOBI

% Print the residuals during mesh deformation to the console (YES, NO)
DEFORM_CONSOLE_OUTPUT= YES

% Visualize the surface deformation (NO, YES)
VISUALIZE_SURFACE_DEF= YES
%
% Visualize the volume deformation (NO, YES)
VISUALIZE_VOLUME_DEF= YES

% ------------- COMMON PARAMETERS DEFINING THE NUMERICAL METHOD ---------------%
%
% Numerical method for spatial gradients (GREEN_GAUSS, WEIGHTED_LEAST_SQUARES)
NUM_METHOD_GRAD= GREEN_GAUSS
%
% Courant-Friedrichs-Lewy condition of the finest grid
CFL_NUMBER= 100.0
%
% Adaptive CFL number (NO, YES)
CFL_ADAPT= NO
%
% Objective function in gradient evaluation
OBJECTIVE_FUNCTION= DRAG
%
% Parameters of the adaptive CFL number (factor down, factor up, CFL min value,
%                                        CFL max value )
CFL_ADAPT_PARAM= ( 1.5, 0.5, 80.0, 140.0 )
%
% Runge-Kutta alpha coefficients
RK_ALPHA_COEFF= ( 0.66667, 0.66667, 1.000000 )
%

% ------------------------ LINEAR SOLVER DEFINITION ---------------------------%
%
% Linear solver for the implicit (or discrete adjoint) formulation (BCGSTAB, FGMRES)
LINEAR_SOLVER= FGMRES
%
% Preconditioner of the Krylov linear solver (NONE, JACOBI, LINELET)
LINEAR_SOLVER_PREC= ILU
%
% Min error of the linear solver for the implicit formulation
LINEAR_SOLVER_ERROR= 1E-6
%
% Max number of iterations of the linear solver for the implicit formulation
LINEAR_SOLVER_ITER= 13


% -------------------------- MULTIGRID PARAMETERS -----------------------------%

MGLEVEL= 0
MGCYCLE= W_CYCLE
MG_PRE_SMOOTH= ( 1, 2, 3, 3 )
MG_POST_SMOOTH= ( 0, 0, 0, 0 )
MG_CORRECTION_SMOOTH= ( 0, 0, 0, 0 )
MG_DAMP_RESTRICTION= 0.9
MG_DAMP_PROLONGATION= 0.9

% -------------------- FLOW NUMERICAL METHOD DEFINITION -----------------------%
%
% Convective numerical method (JST, LAX-FRIEDRICH, CUSP, ROE, AUSM, HLLC,
%                              TURKEL_PREC, MSW)
CONV_NUM_METHOD_FLOW= JST
%
% Spatial numerical order integration (1ST_ORDER, 2ND_ORDER, 2ND_ORDER_LIMITER)
MUSCL_FLOW= YES
%
% Slope limiter (NONE, VENKATAKRISHNAN, VENKATAKRISHNAN_WANG,
%                BARTH_JESPERSEN, VAN_ALBADA_EDGE)
SLOPE_LIMITER_FLOW= VENKATAKRISHNAN
%
% Coefficient for the Venkat's limiter (upwind scheme). A larger values decrease
%             the extent of limiting, values approaching zero cause
%             lower-order approximation to the solution (0.05 by default)
VENKAT_LIMITER_COEFF= 0.05
%
% 2nd and 4th order artificial dissipation coefficients for
%     the JST method ( 0.5, 0.02 by default )
JST_SENSOR_COEFF= ( 0.5, 0.02 )
%
% Time discretization (RUNGE-KUTTA_EXPLICIT, EULER_IMPLICIT, EULER_EXPLICIT)
TIME_DISCRE_FLOW= EULER_IMPLICIT

% -------------------- TURBULENT NUMERICAL METHOD DEFINITION ------------------%
%
% Convective numerical method (SCALAR_UPWIND)
CONV_NUM_METHOD_TURB= SCALAR_UPWIND
%
% Monotonic Upwind Scheme for Conservation Laws (TVD) in the turbulence equations.
%           Required for 2nd order upwind schemes (NO, YES)
MUSCL_TURB= NO
%
% Slope limiter (VENKATAKRISHNAN, MINMOD)
SLOPE_LIMITER_TURB= VENKATAKRISHNAN
%
% Time discretization (EULER_IMPLICIT)
TIME_DISCRE_TURB= EULER_IMPLICIT


% ----------------- ADJOINT-FLOW NUMERICAL METHOD DEFINITION ------------------%
%
% Convective numerical method: (JST, LAX-FRIEDRICH, ROE-1ST_ORDER,
%                               ROE-2ND_ORDER)
CONV_NUM_METHOD_ADJFLOW= JST
%
% 2nd, and 4th order artificial dissipation coefficients
ADJ_JST_SENSOR_COEFF= ( 0.5, 0.02 )
%
% Reduction factor of the CFL coefficient in the turbulence problem
CFL_REDUCTION_TURB= 1.5
%
% Time discretization (RUNGE-KUTTA_EXPLICIT, EULER_IMPLICIT)
TIME_DISCRE_ADJFLOW= EULER_IMPLICIT

% --------------------------- CONVERGENCE PARAMETERS --------------------------&

CONV_FIELD= RMS_DENSITY
CONV_RESIDUAL_MINVAL= -9
CONV_STARTITER= 25
CONV_CAUCHY_ELEMS= 100
CONV_CAUCHY_EPS= 1E-6

% ------------------------- INPUT/OUTPUT INFORMATION --------------------------%
%
% Mesh input file
MESH_FILENAME= CRM_RANS_mesh.su2
%
% Mesh output file
MESH_OUT_FILENAME= mesh_out.su2
%
SOLUTION_FILENAME= solution_flow
SOLUTION_ADJ_FILENAME= solution_adj
%
MESH_FORMAT= SU2
TABULAR_FORMAT= CSV

CONV_FILENAME= history

WRT_FORCES_BREAKDOWN = YES
BREAKDOWN_FILENAME= forces_breakdown.dat

RESTART_FILENAME= restart_flow.dat
RESTART_ADJ_FILENAME= restart_adj.dat

VOLUME_FILENAME= flow
SURFACE_FILENAME= surface_flow

VOLUME_ADJ_FILENAME= adjoint
GRAD_OBJFUNC_FILENAME= of_grad.dat

SURFACE_ADJ_FILENAME= surface_adjoint

WRT_SOL_FREQ= 250
WRT_CON_FREQ= 1

SCREEN_OUTPUT= (INNER_ITER, RMS_DENSITY, RMS_NU_TILDE, LIFT, DRAG)
